Version 4
SHEET 1 1716 680
WIRE -112 -64 -128 -64
WIRE 64 -64 -112 -64
WIRE 352 -64 128 -64
WIRE 352 64 352 -64
WIRE 352 64 288 64
WIRE 480 64 352 64
WIRE 608 64 480 64
WIRE 688 64 608 64
WIRE 352 96 352 64
WIRE 608 96 608 64
WIRE 32 128 -48 128
WIRE -128 192 -128 -64
WIRE 32 192 -128 192
WIRE 352 192 352 160
WIRE 352 192 288 192
WIRE -48 208 -48 128
WIRE 608 208 608 176
WIRE 688 208 608 208
WIRE 1264 208 1232 208
WIRE 1312 208 1264 208
WIRE 1392 208 1312 208
WIRE 1488 208 1392 208
WIRE 1552 208 1488 208
WIRE 1392 224 1392 208
WIRE 1552 240 1552 208
WIRE 32 256 16 256
WIRE 352 256 352 192
WIRE 352 256 288 256
WIRE 16 272 16 256
WIRE 16 272 -48 272
WIRE 1264 288 1264 208
WIRE 1264 288 1232 288
WIRE 1312 288 1312 208
WIRE 1392 320 1392 288
WIRE 1552 336 1552 320
WIRE 928 384 928 368
WIRE 1152 384 1152 368
WIRE 1280 384 1152 384
WIRE 1312 384 1312 368
WIRE 1312 384 1280 384
WIRE 1024 400 1024 368
WIRE 800 416 800 368
WIRE 800 416 720 416
WIRE 1312 416 1312 384
WIRE 720 448 720 416
WIRE 800 448 800 416
WIRE 720 528 720 512
WIRE 800 528 720 528
WIRE 800 544 800 528
FLAG 352 256 0
FLAG -128 272 0
FLAG 928 384 0
FLAG 1024 400 0
FLAG 1392 320 0
FLAG 1488 208 OutLDO
FLAG 1552 336 0
FLAG 800 544 0
FLAG 1312 496 0
FLAG 1280 384 PGFB
FLAG -112 -64 Vin
FLAG 480 64 Out
FLAG 608 288 0
SYMBOL PowerProducts\\LTC660 160 160 R0
SYMATTR InstName U1
SYMBOL cap 336 96 R0
SYMATTR InstName C1
SYMATTR Value 150µ
SYMBOL cap -64 208 R0
SYMATTR InstName C2
SYMATTR Value 150µ
SYMBOL voltage -128 176 R0
WINDOW 123 0 0 Left 0
WINDOW 39 0 0 Left 0
SYMATTR InstName V1
SYMATTR Value 3.3
SYMBOL AutoGenerated\\VSKY20401608 96 -64 R0
SYMATTR InstName U2
SYMBOL bv 1552 224 R0
WINDOW 39 24 124 Left 2
SYMATTR SpiceLine Vprxover=5
SYMATTR InstName B1
SYMATTR Value P=0.5
SYMBOL cap 1376 224 R0
WINDOW 40 24 36 Left 2
SYMATTR InstName C3
SYMATTR Value 10µ
SYMATTR SpiceLine Rser=3m
SYMBOL cap 704 448 R0
SYMATTR InstName C4
SYMATTR Value 1n
SYMBOL res 784 432 R0
SYMATTR InstName R1
SYMATTR Value 49.9k
SYMBOL res 1296 272 R0
SYMATTR InstName R2
SYMATTR Value 158k
SYMBOL res 1296 400 R0
SYMATTR InstName R3
SYMATTR Value 10.2k
SYMBOL PowerProducts\\LT3042 928 208 R0
SYMATTR InstName U3
SYMBOL res 592 80 R0
SYMATTR InstName R4
SYMATTR Value 3480
SYMBOL res 592 192 R0
SYMATTR InstName R5
SYMATTR Value 1020
TEXT -160 568 Left 2 !.tran 10m startup
