Version 4
SHEET 1 2196 1124
WIRE -128 -320 -256 -320
WIRE 32 -320 -48 -320
WIRE 336 -320 32 -320
WIRE -256 -304 -256 -320
WIRE 336 -240 336 -320
WIRE 464 -240 464 -288
WIRE 32 -224 32 -256
WIRE 32 -224 -256 -224
WIRE -256 -208 -256 -224
WIRE 64 -176 -256 -176
WIRE 256 -176 64 -176
WIRE 576 -176 544 -176
WIRE 576 -160 576 -176
WIRE 576 -80 576 -96
WIRE 576 -80 544 -80
WIRE 576 -64 576 -80
WIRE 576 16 544 16
WIRE 688 112 544 112
WIRE 768 112 688 112
WIRE 1040 112 768 112
WIRE 1168 112 1040 112
WIRE 688 128 688 112
WIRE 1040 192 1040 112
WIRE 1168 192 1040 192
WIRE 144 208 80 208
WIRE 256 208 224 208
WIRE 592 208 544 208
WIRE 688 224 688 192
WIRE 1744 256 1712 256
WIRE 1792 256 1744 256
WIRE 1872 256 1792 256
WIRE 1968 256 1872 256
WIRE 2032 256 1968 256
WIRE 592 272 592 208
WIRE 1168 272 592 272
WIRE 1872 272 1872 256
WIRE 80 288 80 208
WIRE 2032 288 2032 256
WIRE 400 320 400 272
WIRE 1744 336 1744 256
WIRE 1744 336 1712 336
WIRE 1792 336 1792 256
WIRE 1872 368 1872 336
WIRE 2032 384 2032 368
WIRE 1408 432 1408 416
WIRE 1632 432 1632 416
WIRE 1792 432 1792 416
WIRE 1792 432 1632 432
WIRE 1504 448 1504 416
WIRE 1280 464 1280 416
WIRE 1280 464 1200 464
WIRE 1792 464 1792 432
WIRE 1200 496 1200 464
WIRE 1280 496 1280 464
WIRE 1200 576 1200 560
WIRE 1280 576 1200 576
WIRE 1280 592 1280 576
FLAG 688 224 0
FLAG -256 -208 0
FLAG -256 -320 IN
FLAG 768 112 OUT
FLAG -256 -96 0
FLAG 64 -176 EN
FLAG 1408 432 0
FLAG 1504 448 0
FLAG 1872 368 0
FLAG 1968 256 OutLDO
FLAG 2032 384 0
FLAG 1280 592 0
FLAG 1792 544 0
FLAG 400 320 0
FLAG 80 288 0
FLAG 528 -288 0
FLAG 256 -80 0
FLAG 192 112 0
SYMBOL cap 672 128 R0
SYMATTR InstName C2
SYMATTR Value 22µ
SYMATTR SpiceLine V=10 Irms=0 Rser=0 Lser=0 mfg="Murata" pn="GRM187R61A226ME15" type="X5R"
SYMBOL voltage -256 -320 R0
WINDOW 123 0 0 Left 0
WINDOW 39 0 0 Left 0
SYMATTR InstName V1
SYMATTR Value 50
SYMBOL cap 16 -320 R0
SYMATTR InstName C4
SYMATTR Value 2.2µ
SYMBOL res -32 -336 R90
WINDOW 0 0 56 VBottom 2
WINDOW 3 32 56 VTop 2
SYMATTR InstName R4
SYMATTR Value 470
SYMBOL voltage -256 -192 R0
WINDOW 123 0 0 Left 0
WINDOW 39 0 0 Left 0
SYMATTR InstName V2
SYMATTR Value PWL(0 0 0.0001 0 0.00010001 5)
SYMBOL bv 2032 272 R0
WINDOW 39 24 124 Left 2
SYMATTR SpiceLine Vprxover=5
SYMATTR InstName B2
SYMATTR Value P=0.2
SYMBOL cap 1856 272 R0
WINDOW 40 24 36 Left 2
SYMATTR InstName C3
SYMATTR Value 10µ
SYMATTR SpiceLine Rser=3m
SYMBOL LT3045-1 1408 256 R0
SYMATTR InstName U2
SYMBOL cap 1184 496 R0
SYMATTR InstName C5
SYMATTR Value 1n
SYMBOL res 1264 480 R0
SYMATTR InstName R1
SYMATTR Value 49.9k
SYMBOL res 1776 320 R0
SYMATTR InstName R2
SYMATTR Value 158k
SYMBOL res 1776 448 R0
SYMATTR InstName R6
SYMATTR Value 10.2k
SYMBOL PowerProducts\\LT8631 400 16 R0
SYMATTR InstName U3
SYMBOL res 240 192 R90
WINDOW 0 0 56 VBottom 2
WINDOW 3 32 56 VTop 2
SYMATTR InstName R5
SYMATTR Value 187k
SYMBOL cap 560 -160 R0
SYMATTR InstName C6
SYMATTR Value 0.1µ
SYMBOL cap 464 -272 R270
WINDOW 0 32 32 VTop 2
WINDOW 3 0 32 VBottom 2
SYMATTR InstName C7
SYMATTR Value 2.2µ
SYMBOL ind 560 -80 R0
SYMATTR InstName L2
SYMATTR Value 100µ
SYMBOL cap 256 96 R90
WINDOW 0 0 32 VBottom 2
WINDOW 3 32 32 VTop 2
SYMATTR InstName C8
SYMATTR Value 100p
TEXT 704 336 Left 2 !.tran 10m
