Version 4
SHEET 1 1716 680
WIRE -48 -96 -96 -96
WIRE 64 -96 16 -96
WIRE -96 -16 -96 -96
WIRE 64 -16 64 -96
WIRE -176 64 -288 64
WIRE -144 64 -176 64
WIRE 352 64 112 64
WIRE 480 64 352 64
WIRE 608 64 480 64
WIRE 688 64 608 64
WIRE 352 96 352 64
WIRE 688 144 608 144
WIRE -176 160 -176 64
WIRE -144 160 -176 160
WIRE 208 160 112 160
WIRE 352 176 352 160
WIRE 1264 208 1232 208
WIRE 1312 208 1264 208
WIRE 1392 208 1312 208
WIRE 1488 208 1392 208
WIRE 1552 208 1488 208
WIRE 208 224 208 160
WIRE 688 224 208 224
WIRE 1392 224 1392 208
WIRE 1552 240 1552 208
WIRE -80 272 -80 240
WIRE 48 272 48 240
WIRE 1264 288 1264 208
WIRE 1264 288 1232 288
WIRE 1312 288 1312 208
WIRE 1392 320 1392 288
WIRE 1552 336 1552 320
WIRE 928 384 928 368
WIRE 1152 384 1152 368
WIRE 1280 384 1152 384
WIRE 1312 384 1312 368
WIRE 1312 384 1280 384
WIRE 1024 400 1024 368
WIRE 800 416 800 368
WIRE 800 416 720 416
WIRE 1312 416 1312 384
WIRE 720 448 720 416
WIRE 800 448 800 416
WIRE 720 528 720 512
WIRE 800 528 720 528
WIRE 800 544 800 528
FLAG 928 384 0
FLAG 1024 400 0
FLAG 1392 320 0
FLAG 1488 208 OutLDO
FLAG 1552 336 0
FLAG 800 544 0
FLAG 1312 496 0
FLAG 1280 384 PGFB
FLAG -176 64 Vin
FLAG 480 64 Out
FLAG 352 176 0
FLAG 48 272 0
FLAG -80 272 0
FLAG -288 144 0
FLAG 528 144 0
SYMBOL voltage -288 48 R0
WINDOW 123 0 0 Left 0
WINDOW 39 0 0 Left 0
SYMATTR InstName V1
SYMATTR Value 3.3
SYMBOL bv 1552 224 R0
WINDOW 39 24 124 Left 2
SYMATTR SpiceLine Vprxover=5
SYMATTR InstName B1
SYMATTR Value P=0.5
SYMBOL cap 1376 224 R0
WINDOW 40 24 36 Left 2
SYMATTR InstName C3
SYMATTR Value 10µ
SYMATTR SpiceLine Rser=3m
SYMBOL cap 704 448 R0
SYMATTR InstName C4
SYMATTR Value 1n
SYMBOL res 784 432 R0
SYMATTR InstName R1
SYMATTR Value 49.9k
SYMBOL res 1296 272 R0
SYMATTR InstName R2
SYMATTR Value 158k
SYMBOL res 1296 400 R0
SYMATTR InstName R3
SYMATTR Value 10.2k
SYMBOL cap 16 -112 R90
WINDOW 0 0 32 VBottom 2
WINDOW 3 32 32 VTop 2
SYMATTR InstName C5
SYMATTR Value 1µ
SYMBOL cap 336 96 R0
SYMATTR InstName C6
SYMATTR Value 1µ
SYMBOL POWERPRODUCTS\\LTC3200 -16 112 R0
WINDOW 3 80 142 Left 2
SYMATTR InstName U4
SYMBOL PowerProducts\\LT3045-1 928 208 R0
SYMATTR InstName U1
SYMBOL res 592 48 R0
SYMATTR InstName R4
SYMATTR Value 3480
SYMBOL res 624 128 R90
WINDOW 0 0 56 VBottom 2
WINDOW 3 32 56 VTop 2
SYMATTR InstName R5
SYMATTR Value 1020
TEXT -160 568 Left 2 !.tran 25m startup
