Version 4
SHEET 1 2196 1124
WIRE -208 112 -336 112
WIRE -48 112 -128 112
WIRE 144 112 -48 112
WIRE 464 112 432 112
WIRE 688 112 544 112
WIRE 768 112 688 112
WIRE 1040 112 768 112
WIRE 1168 112 1040 112
WIRE -336 128 -336 112
WIRE 688 128 688 112
WIRE 1040 192 1040 112
WIRE 1168 192 1040 192
WIRE -48 208 -48 176
WIRE -48 208 -336 208
WIRE 144 208 80 208
WIRE 592 208 432 208
WIRE -336 224 -336 208
WIRE 688 224 688 192
WIRE -16 256 -336 256
WIRE 80 256 80 208
WIRE 80 256 -16 256
WIRE 1744 256 1712 256
WIRE 1792 256 1744 256
WIRE 1872 256 1792 256
WIRE 1968 256 1872 256
WIRE 2032 256 1968 256
WIRE 592 272 592 208
WIRE 1168 272 592 272
WIRE 1872 272 1872 256
WIRE 2032 288 2032 256
WIRE 448 304 432 304
WIRE 1744 336 1744 256
WIRE 1744 336 1712 336
WIRE 1792 336 1792 256
WIRE 1872 368 1872 336
WIRE 2032 384 2032 368
WIRE 448 400 432 400
WIRE 1408 432 1408 416
WIRE 1632 432 1632 416
WIRE 1792 432 1792 416
WIRE 1792 432 1632 432
WIRE 1504 448 1504 416
WIRE 1280 464 1280 416
WIRE 1280 464 1200 464
WIRE 1792 464 1792 432
WIRE 144 496 128 496
WIRE 448 496 432 496
WIRE 1200 496 1200 464
WIRE 1280 496 1280 464
WIRE 288 576 288 560
WIRE 1200 576 1200 560
WIRE 1280 576 1200 576
WIRE 1280 592 1280 576
FLAG 688 224 0
FLAG -336 224 0
FLAG -336 112 IN
FLAG 768 112 OUT
FLAG -336 336 0
FLAG -16 256 EN
FLAG 1408 432 0
FLAG 1504 448 0
FLAG 1872 368 0
FLAG 1968 256 OutLDO
FLAG 2032 384 0
FLAG 1280 592 0
FLAG 1792 544 0
FLAG 288 576 0
FLAG 448 496 0
FLAG 128 496 0
FLAG 448 400 0
SYMBOL cap 672 128 R0
SYMATTR InstName C2
SYMATTR Value 22µ
SYMATTR SpiceLine V=10 Irms=0 Rser=0 Lser=0 mfg="Murata" pn="GRM187R61A226ME15" type="X5R"
SYMBOL voltage -336 112 R0
WINDOW 123 0 0 Left 0
WINDOW 39 0 0 Left 0
SYMATTR InstName V1
SYMATTR Value 50
SYMBOL cap -64 112 R0
SYMATTR InstName C4
SYMATTR Value 2.2µ
SYMBOL res -112 96 R90
WINDOW 0 0 56 VBottom 2
WINDOW 3 32 56 VTop 2
SYMATTR InstName R4
SYMATTR Value 470
SYMBOL voltage -336 240 R0
WINDOW 123 0 0 Left 0
WINDOW 39 0 0 Left 0
SYMATTR InstName V2
SYMATTR Value PWL(0 0 0.0001 0 0.00010001 5)
SYMBOL bv 2032 272 R0
WINDOW 39 24 124 Left 2
SYMATTR SpiceLine Vprxover=5
SYMATTR InstName B2
SYMATTR Value P=0.25
SYMBOL cap 1856 272 R0
WINDOW 40 24 36 Left 2
SYMATTR InstName C3
SYMATTR Value 10µ
SYMATTR SpiceLine Rser=3m
SYMBOL LT3045-1 1408 256 R0
SYMATTR InstName U2
SYMBOL cap 1184 496 R0
SYMATTR InstName C5
SYMATTR Value 1n
SYMBOL res 1264 480 R0
SYMATTR InstName R1
SYMATTR Value 49.9k
SYMBOL res 1776 320 R0
SYMATTR InstName R2
SYMATTR Value 158k
SYMBOL res 1776 448 R0
SYMATTR InstName R6
SYMATTR Value 10.2k
SYMBOL ind 448 128 R270
WINDOW 0 32 56 VTop 2
WINDOW 3 5 56 VBottom 2
SYMATTR InstName L1
SYMATTR Value 330µ
SYMATTR SpiceLine Rser=490m
SYMBOL PowerProducts\\LTC3639 288 304 R0
SYMATTR InstName U1
TEXT 704 336 Left 2 !.tran 10m
