Version 4
SHEET 1 2196 1124
WIRE 352 0 336 0
WIRE 432 0 416 0
WIRE -112 16 -240 16
WIRE 48 16 -32 16
WIRE 208 16 48 16
WIRE -240 32 -240 16
WIRE 208 48 208 16
WIRE 336 48 336 0
WIRE 48 112 48 80
WIRE 48 112 -240 112
WIRE 144 112 112 112
WIRE 432 112 432 0
WIRE 432 112 400 112
WIRE 448 112 432 112
WIRE 544 112 528 112
WIRE 688 112 544 112
WIRE 768 112 688 112
WIRE 1040 112 768 112
WIRE 1168 112 1040 112
WIRE -240 128 -240 112
WIRE 688 128 688 112
WIRE 80 160 -240 160
WIRE 112 160 112 112
WIRE 112 160 80 160
WIRE 1040 192 1040 112
WIRE 1168 192 1040 192
WIRE 544 208 544 112
WIRE 544 208 400 208
WIRE 688 224 688 192
WIRE 1744 256 1712 256
WIRE 1792 256 1744 256
WIRE 1872 256 1792 256
WIRE 1968 256 1872 256
WIRE 1984 256 1968 256
WIRE 2032 256 1984 256
WIRE 960 272 704 272
WIRE 1168 272 960 272
WIRE 1872 272 1872 256
WIRE 2032 288 2032 256
WIRE 48 304 32 304
WIRE 144 304 128 304
WIRE 576 304 400 304
WIRE 1040 336 864 336
WIRE 1744 336 1744 256
WIRE 1744 336 1712 336
WIRE 1792 336 1792 256
WIRE 704 352 704 272
WIRE 736 352 704 352
WIRE 1872 368 1872 336
WIRE 272 384 272 368
WIRE 736 384 704 384
WIRE 2032 384 2032 368
WIRE 912 400 864 400
WIRE 640 416 640 400
WIRE 704 416 704 384
WIRE 704 416 640 416
WIRE 640 432 640 416
WIRE 1408 432 1408 416
WIRE 1632 432 1632 416
WIRE 1792 432 1792 416
WIRE 1792 432 1632 432
WIRE 1504 448 1504 416
WIRE 1280 464 1280 416
WIRE 1280 464 1200 464
WIRE 1792 464 1792 432
WIRE 1200 496 1200 464
WIRE 1280 496 1280 464
WIRE 576 512 576 304
WIRE 640 512 576 512
WIRE 784 512 640 512
WIRE 912 512 912 400
WIRE 912 512 784 512
WIRE 1200 576 1200 560
WIRE 1280 576 1200 576
WIRE 1280 592 1280 576
WIRE 1040 640 1040 336
WIRE 1984 640 1984 256
WIRE 1984 640 1040 640
FLAG 272 384 0
FLAG 32 304 0
FLAG 688 224 0
FLAG -240 128 0
FLAG -240 16 IN
FLAG 768 112 OUT
FLAG -240 240 0
FLAG 208 16 VIN
FLAG 80 160 EN
FLAG 1408 432 0
FLAG 1504 448 0
FLAG 1872 368 0
FLAG 1968 256 OutLDO
FLAG 2032 384 0
FLAG 1280 592 0
FLAG 1792 544 0
FLAG 640 320 0
FLAG 864 368 0
FLAG 960 272 VIOC
FLAG 784 512 FB
SYMBOL ind 432 128 R270
WINDOW 0 32 56 VTop 2
WINDOW 3 5 56 VBottom 2
SYMATTR InstName L1
SYMATTR Value 100µ
SYMATTR SpiceLine Ipk=0.68 Rser=0.373
SYMBOL res 144 288 R90
WINDOW 0 0 56 VBottom 2
WINDOW 3 32 56 VTop 2
SYMATTR InstName R3
SYMATTR Value 787k
SYMBOL cap 352 16 R270
WINDOW 0 32 32 VTop 2
WINDOW 3 0 32 VBottom 2
SYMATTR InstName C1
SYMATTR Value .22µ
SYMBOL cap 672 128 R0
SYMATTR InstName C2
SYMATTR Value 22µ
SYMATTR SpiceLine V=10 Irms=0 Rser=0 Lser=0 mfg="Murata" pn="GRM187R61A226ME15" type="X5R"
SYMBOL voltage -240 16 R0
WINDOW 123 0 0 Left 0
WINDOW 39 0 0 Left 0
SYMATTR InstName V1
SYMATTR Value 50
SYMBOL PowerProducts\\LT3990 272 208 R0
SYMATTR InstName U1
SYMBOL cap 32 16 R0
SYMATTR InstName C4
SYMATTR Value 2.2µ
SYMBOL res -16 0 R90
WINDOW 0 0 56 VBottom 2
WINDOW 3 32 56 VTop 2
SYMATTR InstName R4
SYMATTR Value 470
SYMBOL voltage -240 144 R0
WINDOW 123 0 0 Left 0
WINDOW 39 0 0 Left 0
SYMATTR InstName V2
SYMATTR Value PWL(0 0 0.0001 0 0.00010001 5)
SYMBOL bv 2032 272 R0
WINDOW 39 24 124 Left 2
SYMATTR SpiceLine Vprxover=5
SYMATTR InstName B2
SYMATTR Value P=0.2
SYMBOL cap 1856 272 R0
WINDOW 40 24 36 Left 2
SYMATTR InstName C3
SYMATTR Value 10µ
SYMATTR SpiceLine Rser=3m
SYMBOL LT3045-1 1408 256 R0
SYMATTR InstName U2
SYMBOL cap 1184 496 R0
SYMATTR InstName C5
SYMATTR Value 1n
SYMBOL res 1264 480 R0
SYMATTR InstName R1
SYMATTR Value 49.9k
SYMBOL res 1776 320 R0
SYMATTR InstName R2
SYMATTR Value 158k
SYMBOL res 1776 448 R0
SYMATTR InstName R6
SYMATTR Value 10.2k
SYMBOL AutoGenerated\\OPA2991 800 368 R0
SYMATTR InstName U3
SYMBOL res 624 416 R0
SYMATTR InstName R5
SYMATTR Value 11.3k
SYMBOL res 624 304 R0
SYMATTR InstName R7
SYMATTR Value 21.5k
TEXT 1376 -72 Left 2 !.tran 10m
