Version 4
SHEET 1 1364 680
WIRE 352 0 336 0
WIRE 432 0 416 0
WIRE -112 16 -240 16
WIRE 48 16 -32 16
WIRE 208 16 48 16
WIRE -240 32 -240 16
WIRE 208 48 208 16
WIRE 336 48 336 0
WIRE 48 112 48 80
WIRE 48 112 -240 112
WIRE 144 112 112 112
WIRE 432 112 432 0
WIRE 432 112 400 112
WIRE 448 112 432 112
WIRE 544 112 528 112
WIRE 576 112 544 112
WIRE 688 112 576 112
WIRE 768 112 688 112
WIRE -240 128 -240 112
WIRE 688 128 688 112
WIRE 768 128 768 112
WIRE 80 160 -240 160
WIRE 112 160 112 112
WIRE 112 160 80 160
WIRE 544 208 544 112
WIRE 544 208 400 208
WIRE 576 208 576 112
WIRE 688 224 688 192
WIRE 768 224 768 208
WIRE 48 304 32 304
WIRE 144 304 128 304
WIRE 576 304 576 288
WIRE 576 304 400 304
WIRE 576 320 576 304
WIRE 272 384 272 368
WIRE 576 416 576 400
FLAG 272 384 0
FLAG 32 304 0
FLAG 576 416 0
FLAG 688 224 0
FLAG 768 224 0
FLAG -240 128 0
FLAG -240 16 IN
FLAG 768 112 OUT
FLAG -240 240 0
FLAG 208 16 VIN
FLAG 80 160 EN
SYMBOL ind 432 128 R270
WINDOW 0 32 56 VTop 2
WINDOW 3 5 56 VBottom 2
SYMATTR InstName L1
SYMATTR Value 33µ
SYMATTR SpiceLine Ipk=0.6 Rser=0.114
SYMBOL res 560 192 R0
SYMATTR InstName R1
SYMATTR Value 15.15Meg
SYMBOL res 560 304 R0
SYMATTR InstName R2
SYMATTR Value 4.85Meg
SYMBOL res 144 288 R90
WINDOW 0 0 56 VBottom 2
WINDOW 3 32 56 VTop 2
SYMATTR InstName R3
SYMATTR Value 374K
SYMBOL cap 352 16 R270
WINDOW 0 32 32 VTop 2
WINDOW 3 0 32 VBottom 2
SYMATTR InstName C1
SYMATTR Value .22µ
SYMBOL cap 672 128 R0
SYMATTR InstName C2
SYMATTR Value 22µ
SYMATTR SpiceLine V=10 Irms=0 Rser=0 Lser=0 mfg="Murata" pn="GRM187R61A226ME15" type="X5R"
SYMBOL voltage -240 16 R0
WINDOW 123 0 0 Left 0
WINDOW 39 0 0 Left 0
SYMATTR InstName V1
SYMATTR Value 50
SYMBOL PowerProducts\\LT3990 272 208 R0
SYMATTR InstName U1
SYMBOL cap 32 16 R0
SYMATTR InstName C4
SYMATTR Value 2.2µ
SYMBOL res -16 0 R90
WINDOW 0 0 56 VBottom 2
WINDOW 3 32 56 VTop 2
SYMATTR InstName R4
SYMATTR Value 470
SYMBOL voltage -240 144 R0
WINDOW 123 0 0 Left 0
WINDOW 39 0 0 Left 0
SYMATTR InstName V2
SYMATTR Value PWL(0 0 0.0001 0 0.0001001 5.2)
SYMBOL bv 768 112 R0
WINDOW 39 24 124 Left 2
SYMATTR SpiceLine Vprxover=5
SYMATTR InstName B2
SYMATTR Value P=0.12
TEXT 704 336 Left 2 !.tran 10m
